Version 4
SHEET 1 972 680
WIRE 80 -96 -176 -96
WIRE 240 -96 160 -96
WIRE 352 -96 240 -96
WIRE 528 -96 432 -96
WIRE 736 -96 528 -96
WIRE 240 -48 240 -96
WIRE 528 -48 528 -96
WIRE 736 -32 736 -96
WIRE -176 -16 -176 -96
WIRE -176 176 -176 64
WIRE 240 176 240 16
WIRE 240 176 -176 176
WIRE 528 176 528 16
WIRE 528 176 240 176
WIRE 736 176 736 48
WIRE 736 176 528 176
WIRE 240 192 240 176
FLAG 240 192 0
SYMBOL voltage -176 -32 R0
WINDOW 3 24 152 Left 2
WINDOW 123 24 124 Left 2
WINDOW 39 24 180 Left 2
SYMATTR Value SINE(0 1 1 0 0 0 1000)
SYMATTR Value2 AC 1 0
SYMATTR SpiceLine Rser=50
SYMATTR InstName V1
SYMBOL ind 64 -80 R270
WINDOW 0 32 56 VTop 2
WINDOW 3 5 56 VBottom 2
SYMATTR InstName L1
SYMATTR Value {2.098984325*50/frec}
SYMBOL cap 224 -48 R0
SYMATTR InstName C1
SYMATTR Value {1.0644605/(50*frec)}
SYMBOL ind 336 -80 R270
WINDOW 0 32 56 VTop 2
WINDOW 3 5 56 VBottom 2
SYMATTR InstName L2
SYMATTR Value {2.83104364*50/frec}
SYMBOL res 720 -48 R0
SYMATTR InstName R1
SYMATTR Value {2.65960419*50}
SYMBOL cap 512 -48 R0
SYMATTR InstName C2
SYMATTR Value {0.789209287/(50*frec)}
TEXT -184 296 Left 2 !.net I(R1) V1
TEXT -192 320 Left 2 !.ac dec 1000 100k 100Meg
TEXT -208 240 Left 2 !.param frec={2*3.14159265*10Meg}
