Version 4
SHEET 1 1276 680
WIRE 480 -144 480 -192
WIRE 608 -144 608 -192
WIRE 480 0 480 -64
WIRE 608 0 608 -64
WIRE 832 64 736 64
WIRE 1088 64 912 64
WIRE -160 112 -288 112
WIRE 0 112 -80 112
WIRE 32 112 0 112
WIRE 160 112 160 0
WIRE 224 112 160 112
WIRE 352 112 304 112
WIRE 608 112 352 112
WIRE 1088 112 1088 64
WIRE 608 128 608 112
WIRE 832 128 608 128
WIRE -288 160 -288 112
WIRE 0 160 0 112
WIRE 352 160 352 112
WIRE 944 160 912 160
WIRE 512 224 480 224
WIRE 560 224 512 224
WIRE 688 224 640 224
WIRE 832 224 688 224
WIRE 1088 224 1088 192
WIRE 1088 224 912 224
WIRE 512 240 512 224
WIRE 688 240 688 224
WIRE 832 256 752 256
WIRE 976 256 912 256
WIRE 400 272 400 224
WIRE -288 288 -288 240
WIRE 0 288 0 224
WIRE 352 304 352 240
WIRE 752 368 752 256
WIRE 848 368 752 368
WIRE 976 368 976 256
WIRE 976 368 928 368
FLAG 352 304 0
FLAG -288 288 0
FLAG 736 64 Vout
FLAG 944 160 0
FLAG 608 0 0
FLAG 480 0 0
FLAG 608 -192 V-
FLAG 912 96 V-
FLAG 480 -192 V+
FLAG 912 128 V+
FLAG 832 96 0
FLAG 160 0 Vout2
IOPIN 160 0 In
FLAG 832 160 Vin+
IOPIN 832 160 In
FLAG 832 192 Vin-
IOPIN 832 192 In
FLAG 0 288 0
FLAG 400 272 0
FLAG 32 112 Vin+
IOPIN 32 112 Out
FLAG 512 240 Vin-
IOPIN 512 240 Out
FLAG 688 240 Vout2
IOPIN 688 240 Out
SYMBOL res 320 96 R90
WINDOW 0 0 56 VBottom 2
WINDOW 3 32 56 VTop 2
SYMATTR InstName RG
SYMATTR Value {mc(RG,tol)}
SYMATTR SpiceLine tol=5
SYMBOL res 336 144 R0
WINDOW 3 -172 70 Left 2
SYMATTR InstName RQ
SYMATTR Value {mc(RQ,tol)}
SYMATTR SpiceLine tol=5
SYMBOL res -64 96 R90
WINDOW 0 0 56 VBottom 2
WINDOW 3 32 56 VTop 2
SYMATTR InstName R
SYMATTR Value {mc(R,tol}
SYMATTR SpiceLine tol=5
SYMBOL voltage -288 144 R0
WINDOW 123 24 124 Left 2
WINDOW 39 0 0 Left 0
SYMATTR Value2 AC 1 0
SYMATTR InstName V1
SYMATTR Value ""
SYMBOL AutoGenerated\\UAF42 864 160 R0
SYMATTR InstName U2
SYMBOL res 1072 96 R0
SYMATTR InstName RF1
SYMATTR Value {mc(RF,tol)}
SYMATTR SpiceLine tol=5
SYMBOL res 944 352 R90
WINDOW 0 0 56 VBottom 2
WINDOW 3 32 56 VTop 2
SYMATTR InstName RF2
SYMATTR Value {mc(RF,tol}
SYMATTR SpiceLine tol=5
SYMBOL voltage 480 -160 R0
WINDOW 123 0 0 Left 0
WINDOW 39 0 0 Left 0
SYMATTR InstName V2
SYMATTR Value 9
SYMBOL voltage 608 -48 R180
WINDOW 0 24 96 Left 2
WINDOW 3 24 16 Left 2
WINDOW 123 0 0 Left 0
WINDOW 39 0 0 Left 0
SYMATTR InstName V3
SYMATTR Value 9
SYMBOL cap -16 160 R0
SYMATTR InstName C1
SYMATTR Value {mc(C,tol)}
SYMBOL res 496 208 R90
WINDOW 0 0 56 VBottom 2
WINDOW 3 108 47 VTop 2
SYMATTR InstName R1
SYMATTR Value {mc(R,tol)}
SYMBOL res 656 208 R90
WINDOW 0 0 56 VBottom 2
WINDOW 3 106 55 VTop 2
SYMATTR InstName R2
SYMATTR Value {mc(R,tol)}
TEXT -208 416 Left 2 !.ac dec 100 0.001 1Meg
TEXT -208 448 Left 2 !.lib opamp.sub
TEXT 160 472 Left 2 !;param R=1 RG=1K RF=99.412K C=169u RQ=55K
TEXT 160 440 Left 2 ;Valores teoricos
TEXT 160 536 Left 2 !.param R=10k RG=56K RF=100K C=18n RQ=RG
TEXT 160 512 Left 2 ;Valores comerciales
TEXT 168 568 Left 2 !.param tol=0.05
TEXT 160 600 Left 2 !.step param x 1 10 1
