Version 4
SHEET 1 1240 680
WIRE 832 64 736 64
WIRE 1088 64 912 64
WIRE 224 112 160 112
WIRE 352 112 304 112
WIRE 784 112 352 112
WIRE 1088 112 1088 64
WIRE -112 128 -160 128
WIRE 0 128 -32 128
WIRE 160 128 160 112
WIRE 160 128 0 128
WIRE 784 128 784 112
WIRE 832 128 784 128
WIRE 352 160 352 112
WIRE 944 160 912 160
WIRE -160 176 -160 128
WIRE 0 176 0 128
WIRE 1088 224 1088 192
WIRE 1088 224 912 224
WIRE 512 240 512 192
WIRE 640 240 640 192
WIRE 832 256 752 256
WIRE 976 256 912 256
WIRE -160 304 -160 256
WIRE 0 304 0 240
WIRE 352 304 352 240
WIRE 752 368 752 256
WIRE 848 368 752 368
WIRE 976 368 976 256
WIRE 976 368 928 368
WIRE 512 384 512 320
WIRE 640 384 640 320
FLAG 352 304 0
FLAG 0 304 0
FLAG -160 304 0
FLAG 736 64 Vout
FLAG 832 160 0
FLAG 832 192 0
FLAG 944 160 0
FLAG 640 384 0
FLAG 512 384 0
FLAG 640 192 V-
FLAG 912 96 V-
FLAG 512 192 V+
FLAG 912 128 V+
FLAG 832 96 0
SYMBOL res 320 96 R90
WINDOW 0 0 56 VBottom 2
WINDOW 3 32 56 VTop 2
SYMATTR InstName RG
SYMATTR Value {RG}
SYMBOL res 336 144 R0
SYMATTR InstName RQ
SYMATTR Value {RG}
SYMBOL cap -16 176 R0
SYMATTR InstName C
SYMATTR Value {C}
SYMBOL res -16 112 R90
WINDOW 0 0 56 VBottom 2
WINDOW 3 32 56 VTop 2
SYMATTR InstName R
SYMATTR Value {R}
SYMBOL voltage -160 160 R0
WINDOW 123 24 124 Left 2
WINDOW 39 0 0 Left 0
SYMATTR Value2 AC 1 0
SYMATTR InstName V1
SYMATTR Value ""
SYMBOL AutoGenerated\\UAF42 864 160 R0
SYMATTR InstName U2
SYMBOL res 1072 96 R0
SYMATTR InstName RF1
SYMATTR Value {RF}
SYMBOL res 944 352 R90
WINDOW 0 0 56 VBottom 2
WINDOW 3 32 56 VTop 2
SYMATTR InstName RF2
SYMATTR Value {RF}
SYMBOL voltage 512 224 R0
WINDOW 123 0 0 Left 0
WINDOW 39 0 0 Left 0
SYMATTR InstName V2
SYMATTR Value 9
SYMBOL voltage 640 336 R180
WINDOW 0 24 96 Left 2
WINDOW 3 24 16 Left 2
WINDOW 123 0 0 Left 0
WINDOW 39 0 0 Left 0
SYMATTR InstName V3
SYMATTR Value 9
TEXT -208 416 Left 2 !.ac dec 100 0.001 1Meg
TEXT -208 448 Left 2 !.lib opamp.sub
TEXT 160 472 Left 2 !;param R=1 RG=55K RF=99.412K C=169u
TEXT 160 440 Left 2 ;Valores teoricos
TEXT 160 536 Left 2 !.param R=1 RG=56K RF=100K C=189u
TEXT 160 512 Left 2 ;Valores comerciales
