Version 4
SHEET 1 1496 680
WIRE 352 -16 144 -16
WIRE 544 -16 352 -16
WIRE 352 0 352 -16
WIRE 352 0 288 0
WIRE 400 0 352 0
WIRE 544 0 544 -16
WIRE 288 48 288 0
WIRE 400 64 400 0
WIRE 144 144 144 -16
WIRE 288 160 288 128
WIRE 352 160 288 160
WIRE 400 160 400 128
WIRE 400 160 352 160
WIRE 544 160 544 80
WIRE 352 240 352 160
WIRE 400 240 352 240
WIRE 416 240 400 240
WIRE 512 240 496 240
WIRE 544 240 544 224
WIRE 544 240 512 240
WIRE 352 272 352 240
WIRE 544 272 544 240
WIRE 544 272 496 272
WIRE 608 272 544 272
WIRE 608 320 608 272
WIRE 496 336 496 272
WIRE 352 368 352 336
WIRE 496 432 496 400
WIRE 544 432 496 432
WIRE 608 432 608 400
WIRE 608 432 544 432
WIRE 144 496 144 224
WIRE 352 496 352 448
WIRE 352 496 144 496
WIRE 544 496 544 432
WIRE 544 496 352 496
WIRE 544 528 544 496
FLAG 544 528 0
FLAG 400 240 Va
FLAG 512 240 Vb
SYMBOL voltage 144 128 R0
WINDOW 123 24 124 Left 2
WINDOW 39 0 0 Left 0
SYMATTR Value2 AC 1 0
SYMATTR InstName V1
SYMATTR Value ""
SYMBOL cap 512 336 M0
SYMATTR InstName C1
SYMATTR Value {C1}
SYMBOL cap 384 64 R0
SYMATTR InstName C3
SYMATTR Value {C1}
SYMBOL ind 528 -16 R0
SYMATTR InstName L1
SYMATTR Value {L2}
SYMBOL cap 528 160 R0
SYMATTR InstName C2
SYMATTR Value {C2}
SYMBOL ind 368 464 R180
WINDOW 0 36 80 Left 2
WINDOW 3 36 40 Left 2
SYMATTR InstName L2
SYMATTR Value {L2}
SYMBOL ind 272 32 R0
SYMATTR InstName L3
SYMATTR Value {L1}
SYMBOL ind 624 304 M0
SYMATTR InstName L4
SYMATTR Value {L1}
SYMBOL cap 368 336 R180
WINDOW 0 24 56 Left 2
WINDOW 3 24 8 Left 2
SYMATTR InstName C4
SYMATTR Value {C2}
SYMBOL res 512 224 R90
WINDOW 0 0 56 VBottom 2
WINDOW 3 32 56 VTop 2
SYMATTR InstName R1
SYMATTR Value {R}
TEXT 184 560 Left 2 !.ac dec 100 0.01 10Meg
TEXT 792 64 Left 2 !.PARAM L1=R*a1/a0 L2=R/a1 C1=1/(R*a1) C2=a1/(R*a0)
TEXT 792 96 Left 2 !.param a0=0.267 R=1 a1=0.731
