Version 4
SHEET 1 880 680
WIRE 352 48 144 48
WIRE 544 48 352 48
WIRE 352 64 352 48
WIRE 352 64 288 64
WIRE 400 64 352 64
WIRE 544 64 544 48
WIRE 288 112 288 64
WIRE 400 128 400 64
WIRE 144 144 144 48
WIRE 544 160 544 144
WIRE 288 224 288 192
WIRE 352 224 288 224
WIRE 400 224 400 192
WIRE 400 224 352 224
WIRE 352 240 352 224
WIRE 400 240 352 240
WIRE 416 240 400 240
WIRE 512 240 496 240
WIRE 544 240 544 224
WIRE 544 240 512 240
WIRE 352 272 352 240
WIRE 544 272 544 240
WIRE 544 272 496 272
WIRE 608 272 544 272
WIRE 608 320 608 272
WIRE 496 336 496 272
WIRE 352 368 352 336
WIRE 496 432 496 400
WIRE 544 432 496 432
WIRE 608 432 608 400
WIRE 608 432 544 432
WIRE 144 496 144 224
WIRE 352 496 352 448
WIRE 352 496 144 496
WIRE 544 496 544 432
WIRE 544 496 352 496
WIRE 544 528 544 496
FLAG 544 528 0
FLAG 400 240 Va
FLAG 512 240 Vb
SYMBOL voltage 144 128 R0
WINDOW 123 24 124 Left 2
WINDOW 39 0 0 Left 0
SYMATTR InstName V1
SYMATTR Value ""
SYMATTR Value2 AC 1 0
SYMBOL cap 512 336 M0
SYMATTR InstName C1
SYMATTR Value 1
SYMBOL cap 384 128 R0
SYMATTR InstName C3
SYMATTR Value 1
SYMBOL ind 528 48 R0
SYMATTR InstName L1
SYMATTR Value 1
SYMBOL cap 528 160 R0
SYMATTR InstName C2
SYMATTR Value 1
SYMBOL ind 368 464 R180
WINDOW 0 36 80 Left 2
WINDOW 3 36 40 Left 2
SYMATTR InstName L2
SYMATTR Value 1
SYMBOL ind 272 96 R0
SYMATTR InstName L3
SYMATTR Value 1
SYMBOL ind 624 304 M0
SYMATTR InstName L4
SYMATTR Value 1
SYMBOL cap 368 336 R180
WINDOW 0 24 56 Left 2
WINDOW 3 24 8 Left 2
SYMATTR InstName C4
SYMATTR Value 1
SYMBOL res 512 224 R90
WINDOW 0 0 56 VBottom 2
WINDOW 3 32 56 VTop 2
SYMATTR InstName R1
SYMATTR Value 1
TEXT 184 560 Left 2 !.ac dec 100 0.01 10Meg
